    110

C     24.307116     -8.391858       26.631681
C     24.028402     -6.999814       26.613461
C     25.74894      -8.591233       26.608431
C     25.256088     -6.25233        26.558006
C     26.336517     -7.251723       26.524309
C     25.451431     -4.952374       25.950344
C     22.903727     -6.458869       25.895767
C     23.512154     -9.253161       25.884455
C     26.402281     -9.617024       25.883873
C     27.543873     -7.03859        25.807861
C     26.813923     -4.730283       25.435555
C     21.885521     -7.384042       25.430565
C     24.251844     -4.368014       25.417097
C     23.017797     -5.112086       25.412504
C     22.263638     -8.773506       25.406738
C     24.106068    -10.451938       25.336063
C     27.713478     -9.483947       25.335426
C     27.7791       -5.737792       25.287855
C     25.509258    -10.582597       25.282236
C     28.305012     -8.159348       25.266905
C     21.897963     -4.546319       24.703777
C     26.917971     -3.495377       24.661104
C     20.821575     -6.853278       24.616817
C     24.381664     -3.221068       24.605165
C     29.501595     -7.858403       24.561548
C     26.126131    -11.722587       24.513506
C     23.28396     -11.332781       24.507889
C     28.285215    -10.485401       24.500849
C     21.51675      -9.593892       24.498133
C     20.781013     -5.421203       24.480793
C     28.923557     -5.488295       24.469994
C     25.704922     -2.690116       24.392683
C     21.946112    -10.949246       24.35844 
C     27.558289    -11.695153       24.308565
C     23.31764      -2.718772       23.835554
C     28.049913     -3.287543       23.804535
C     20.02154      -7.71293        23.80274 
C     29.099838     -4.276214       23.775066
C     22.07427      -3.384869       23.769482
C     20.394318     -9.130861       23.768671
C     25.275475    -12.659516       23.754967
C     23.81428     -12.399732       23.730297
C     19.686266     -4.93257        23.662189
C     21.137602    -11.810185       23.616472
C     28.149002    -12.723328       23.540396
C     25.829796     -1.545785       23.532829
C     30.998842     -6.29346        23.487898
C     31.195286     -8.674395       22.883595
C     23.492815     -1.661548       22.8822  
C     19.012489     -7.228202       22.877794
C     19.993397    -11.350829       22.851616
C     18.855139     -5.81593        22.842537
C     24.740768     -0.941531       22.839033
C     28.143888     -2.214602       22.823023
C     27.309549    -13.638415       22.816744
C     29.37397     -12.497607       22.810347
C     29.921804    -11.138785       22.805902
C     19.881659     -3.716206       22.798765
C     21.114313     -3.043349       22.797981
C     30.141171     -4.090331       22.79162
C     25.848095    -13.504389       22.791164
C     21.709684    -12.907913       22.779915
C     27.025219     -1.334748       22.775311
C     23.056452    -13.112155       22.761112
C     19.703302     -9.919573       22.754223
C     31.64447      -7.360505       22.753363
C     31.199718     -5.068017       22.727516
C     29.014811     -2.2107         21.689016
C     22.682739     -1.526551       21.684744
C     31.287226     -9.44718        21.67403
C     18.668207     -7.955943       21.656946
C     30.655699    -10.736203       21.652979
C     30.026033     -3.221543       21.64381
C     21.492094     -2.250502       21.632978
C     19.070688     -9.297336       21.628992
C     23.742189    -13.624204       21.613325
C     25.252064     -0.282405       21.604607
C     19.886501    -12.067063       21.598923
C     29.27622     -13.270625       21.591307
C     18.551779     -5.17668        21.590588
C     25.156328    -13.750842       21.585398
C     19.18738      -3.879289       21.583361
C     20.975973    -13.06409        21.574989
C     26.698114     -0.632041       21.553831
C     27.99502     -13.89404        21.547998
C     31.97467      -5.319426       21.545002
C     32.260117     -6.783418       21.532591
C     23.241642     -0.886021       20.499775
C     28.579681     -1.601615       20.466377
C     18.241289     -7.256305       20.452448
C     30.559538    -11.519896       20.451962
C     31.801649     -8.87911        20.423489
C     24.516485     -0.370414       20.416256
C     20.798647     -2.429421       20.403654
C     30.66143      -3.581628       20.401373
C     19.02692     -10.045808       20.399921
C     32.225246     -7.558652       20.384998
C     19.653811     -3.306693       20.38278  
C     19.527115    -11.410149       20.379232 
C     29.849607    -12.757981       20.373478 
C     18.299751     -5.846803        20.371761
C     31.523699     -4.676303        20.367992
C     27.372185     -0.799687        20.345131
C     25.903364    -14.031196        20.343964
C     23.052832    -13.603871        20.328026
C     21.613218    -13.354865        20.293333
C     29.890324     -6.534263        24.27564 
C     30.184898     -8.9305          23.873917
C     29.517391    -10.189402        23.839216
C     27.325338    -14.219027        20.34614 
